<?xml version="1.0" encoding="UTF-8"?>

<routes>
    <!-- Define vehicle types -->
    <vType id="car" accel="2.6" decel="4.5" sigma="0.3" length="5" maxSpeed="15"/>

    <!-- Define routes -->
    <route id="route1" edges="76146229#1"/>
    <route id="route2" edges="-76146229#1"/>

    <!-- Assign vehicles to routes -->
    <vehicle id="mache" type="car" route="route1" depart="0" departLane="best" departPos="0" color="1,0,0" departSpeed = "0" />
    <vehicle id="nv0" type="car" route="route1" depart="0" departPos="20"/>
    <vehicle id="nv1" type="car" route="route1" depart="0" departPos="15"/>
    
    <!-- <vehicle id="veh4" type="car" route="route1" depart="3"/>
    <vehicle id="veh2" type="car" route="route2" depart="5"/>
    <vehicle id="veh3" type="car" route="route2" depart="8"/> -->
</routes>
