<?xml version="1.0" encoding="UTF-8"?>

<!-- generated on 2025-03-16 18:58:01 by Eclipse SUMO netconvert Version 1.22.0
<netconvertConfiguration xmlns:xsi="http://www.w3.org/2001/XMLSchema-instance" xsi:noNamespaceSchemaLocation="http://sumo.dlr.de/xsd/netconvertConfiguration.xsd">

    <input>
        <sumo-net-file value="map.net.xml"/>
    </input>

    <output>
        <output-file value="map1.net.xml"/>
    </output>

    <processing>
        <geometry.min-radius.fix.railways value="false"/>
        <geometry.max-grade.fix value="false"/>
        <offset.disable-normalization value="true"/>
        <offset.x value="-261.77"/>
        <offset.y value="-236.80"/>
        <lefthand value="0"/>
    </processing>

    <junctions>
        <no-turnarounds value="true"/>
        <junctions.corner-detail value="5"/>
        <junctions.limit-turn-speed value="5.50"/>
        <rectangular-lane-cut value="0"/>
    </junctions>

    <pedestrian>
        <walkingareas value="0"/>
    </pedestrian>

</netconvertConfiguration>
-->

<net version="1.20" junctionCornerDetail="5" limitTurnSpeed="5.50" xmlns:xsi="http://www.w3.org/2001/XMLSchema-instance" xsi:noNamespaceSchemaLocation="http://sumo.dlr.de/xsd/net_file.xsd">

    <location netOffset="-379231.01,-3853412.70" convBoundary="-261.77,-236.80,119.13,231.83" origBoundary="-82.323306,34.813650,-82.319210,34.817920" projParameter="+proj=utm +zone=17 +ellps=WGS84 +datum=WGS84 +units=m +no_defs"/>

    <type id="highway.footway" priority="1" numLanes="1" speed="2.78" allow="pedestrian" oneway="1" width="2.00"/>
    <type id="highway.service" priority="1" numLanes="1" speed="5.56" allow="pedestrian delivery bicycle" oneway="0"/>
    <type id="highway.steps" priority="1" numLanes="1" speed="1.39" allow="pedestrian" oneway="1" width="2.00"/>

    <edge id=":11984483009_0" function="internal">
        <lane id=":11984483009_0_0" index="0" allow="pedestrian delivery bicycle" speed="5.56" length="4.85" shape="-128.28,113.86 -133.13,113.95"/>
    </edge>
    <edge id=":11984483009_1" function="internal">
        <lane id=":11984483009_1_0" index="0" allow="pedestrian delivery bicycle" speed="3.65" length="1.44" shape="-128.28,113.86 -129.49,113.08"/>
    </edge>
    <edge id=":11984483009_4" function="internal">
        <lane id=":11984483009_4_0" index="0" allow="pedestrian delivery bicycle" speed="3.65" length="3.23" shape="-129.49,113.08 -129.91,112.29 -129.52,111.48 -128.34,110.66"/>
    </edge>
    <edge id=":11984483009_2" function="internal">
        <lane id=":11984483009_2_0" index="0" allow="pedestrian delivery bicycle" speed="5.56" length="4.85" shape="-133.19,110.75 -128.34,110.66"/>
    </edge>
    <edge id=":11984483009_3" function="internal">
        <lane id=":11984483009_3_0" index="0" allow="pedestrian delivery bicycle" speed="3.65" length="1.44" shape="-133.19,110.75 -131.97,111.53"/>
    </edge>
    <edge id=":11984483009_5" function="internal">
        <lane id=":11984483009_5_0" index="0" allow="pedestrian delivery bicycle" speed="3.65" length="3.23" shape="-131.97,111.53 -131.56,112.32 -131.94,113.13 -133.13,113.95"/>
    </edge>
    <edge id=":5130858711_0" function="internal">
        <lane id=":5130858711_0_0" index="0" allow="pedestrian delivery bicycle" speed="5.56" length="4.89" shape="-4.35,-0.26 -5.65,-0.89 -6.53,-1.36 -7.36,-1.90 -8.56,-2.72"/>
    </edge>
    <edge id=":5130858711_1" function="internal">
        <lane id=":5130858711_1_0" index="0" allow="pedestrian delivery bicycle" speed="3.65" length="1.44" shape="-4.35,-0.26 -5.09,-1.49"/>
    </edge>
    <edge id=":5130858711_4" function="internal">
        <lane id=":5130858711_4_0" index="0" allow="pedestrian delivery bicycle" speed="3.65" length="3.23" shape="-5.09,-1.49 -5.12,-2.39 -4.42,-2.94 -2.99,-3.16"/>
    </edge>
    <edge id=":5130858711_2" function="internal">
        <lane id=":5130858711_2_0" index="0" allow="pedestrian delivery bicycle" speed="5.56" length="4.36" shape="-6.75,-5.36 -5.68,-4.62 -4.94,-4.14 -4.16,-3.72 -2.99,-3.16"/>
    </edge>
    <edge id=":5130858711_3" function="internal">
        <lane id=":5130858711_3_0" index="0" allow="pedestrian delivery bicycle" speed="3.65" length="1.44" shape="-6.75,-5.36 -6.21,-4.02"/>
    </edge>
    <edge id=":5130858711_5" function="internal">
        <lane id=":5130858711_5_0" index="0" allow="pedestrian delivery bicycle" speed="3.65" length="3.23" shape="-6.21,-4.02 -6.33,-3.13 -7.12,-2.70 -8.56,-2.72"/>
    </edge>
    <edge id=":5130858720_0" function="internal">
        <lane id=":5130858720_0_0" index="0" allow="pedestrian delivery bicycle" speed="4.95" length="5.11" shape="-139.33,-51.83 -140.67,-52.29 -141.80,-52.19 -142.73,-51.52 -143.44,-50.29"/>
    </edge>
    <edge id=":5130858720_1" function="internal">
        <lane id=":5130858720_1_0" index="0" allow="pedestrian delivery bicycle" speed="5.56" length="9.43" shape="-139.33,-51.83 -147.72,-56.13"/>
    </edge>
    <edge id=":5130858720_2" function="internal">
        <lane id=":5130858720_2_0" index="0" allow="pedestrian delivery bicycle" speed="3.65" length="4.67" shape="-139.33,-51.83 -140.03,-53.09 -140.02,-53.98 -139.30,-54.51 -137.87,-54.68"/>
    </edge>
    <edge id=":5130858720_3" function="internal">
        <lane id=":5130858720_3_0" index="0" allow="pedestrian delivery bicycle" speed="5.56" length="9.43" shape="-146.25,-58.98 -137.87,-54.68"/>
    </edge>
    <edge id=":5130858720_4" function="internal">
        <lane id=":5130858720_4_0" index="0" allow="pedestrian delivery bicycle" speed="5.56" length="10.21" shape="-146.25,-58.98 -144.12,-57.43 -142.94,-55.47 -142.71,-53.09 -143.44,-50.29"/>
    </edge>
    <edge id=":5130858720_5" function="internal">
        <lane id=":5130858720_5_0" index="0" allow="pedestrian delivery bicycle" speed="3.65" length="4.67" shape="-146.25,-58.98 -145.55,-57.72 -145.56,-56.82 -146.28,-56.30 -147.72,-56.13"/>
    </edge>
    <edge id=":5130858720_6" function="internal">
        <lane id=":5130858720_6_0" index="0" allow="pedestrian delivery bicycle" speed="5.37" length="5.39" shape="-146.41,-51.48 -145.99,-53.01 -146.07,-54.29 -146.65,-55.33 -147.72,-56.13"/>
    </edge>
    <edge id=":5130858720_7" function="internal">
        <lane id=":5130858720_7_0" index="0" allow="pedestrian delivery bicycle" speed="5.56" length="10.63" shape="-146.41,-51.48 -144.93,-54.04 -143.02,-55.42 -140.66,-55.63 -137.87,-54.68"/>
    </edge>
    <edge id=":5130858720_8" function="internal">
        <lane id=":5130858720_8_0" index="0" allow="pedestrian delivery bicycle" speed="3.65" length="4.67" shape="-146.41,-51.48 -145.22,-52.30 -144.33,-52.37 -143.73,-51.70 -143.44,-50.29"/>
    </edge>
    <edge id=":5130858924_0" function="internal">
        <lane id=":5130858924_0_0" index="0" allow="pedestrian delivery bicycle" speed="5.56" length="8.44" shape="-153.30,34.03 -153.65,31.55 -153.97,29.86 -154.40,28.20 -155.08,25.79"/>
    </edge>
    <edge id=":5130858924_1" function="internal">
        <lane id=":5130858924_1_0" index="0" allow="pedestrian delivery bicycle" speed="3.65" length="1.44" shape="-153.30,34.03 -152.67,32.73"/>
    </edge>
    <edge id=":5130858924_4" function="internal">
        <lane id=":5130858924_4_0" index="0" allow="pedestrian delivery bicycle" speed="3.65" length="3.23" shape="-152.67,32.73 -151.93,32.23 -151.08,32.51 -150.13,33.60"/>
    </edge>
    <edge id=":5130858924_2" function="internal">
        <lane id=":5130858924_2_0" index="0" allow="pedestrian delivery bicycle" speed="5.56" length="8.90" shape="-152.01,24.91 -151.28,27.45 -150.83,29.20 -150.50,30.98 -150.13,33.60"/>
    </edge>
    <edge id=":5130858924_3" function="internal">
        <lane id=":5130858924_3_0" index="0" allow="pedestrian delivery bicycle" speed="3.65" length="1.44" shape="-152.01,24.91 -152.45,26.28"/>
    </edge>
    <edge id=":5130858924_5" function="internal">
        <lane id=":5130858924_5_0" index="0" allow="pedestrian delivery bicycle" speed="3.65" length="3.23" shape="-152.45,26.28 -153.11,26.89 -153.98,26.73 -155.08,25.79"/>
    </edge>
    <edge id=":5130858929_0" function="internal">
        <lane id=":5130858929_0_0" index="0" allow="pedestrian delivery bicycle" speed="5.56" length="8.98" shape="-115.80,114.00 -118.46,113.82 -120.28,113.74 -122.11,113.74 -124.77,113.79"/>
    </edge>
    <edge id=":5130858929_1" function="internal">
        <lane id=":5130858929_1_0" index="0" allow="pedestrian delivery bicycle" speed="5.56" length="9.97" shape="-115.80,114.00 -118.32,113.43 -120.17,112.13 -121.35,110.11 -121.85,107.37"/>
    </edge>
    <edge id=":5130858929_2" function="internal">
        <lane id=":5130858929_2_0" index="0" allow="pedestrian delivery bicycle" speed="3.65" length="4.67" shape="-115.80,114.00 -116.94,113.12 -117.28,112.29 -116.83,111.52 -115.57,110.81"/>
    </edge>
    <edge id=":5130858929_3" function="internal">
        <lane id=":5130858929_3_0" index="0" allow="pedestrian delivery bicycle" speed="5.38" length="5.27" shape="-118.66,107.19 -118.39,108.70 -117.79,109.80 -116.85,110.50 -115.57,110.81"/>
    </edge>
    <edge id=":5130858929_4" function="internal">
        <lane id=":5130858929_4_0" index="0" allow="pedestrian delivery bicycle" speed="5.56" length="10.34" shape="-118.66,107.19 -118.91,110.03 -120.01,112.07 -121.96,113.33 -124.77,113.79"/>
    </edge>
    <edge id=":5130858929_5" function="internal">
        <lane id=":5130858929_5_0" index="0" allow="pedestrian delivery bicycle" speed="3.65" length="4.67" shape="-118.66,107.19 -119.39,108.44 -120.17,108.88 -120.99,108.53 -121.85,107.37"/>
    </edge>
    <edge id=":5130858929_6" function="internal">
        <lane id=":5130858929_6_0" index="0" allow="pedestrian delivery bicycle" speed="5.00" length="5.04" shape="-124.84,110.59 -123.47,110.36 -122.51,109.75 -121.97,108.75 -121.85,107.37"/>
    </edge>
    <edge id=":5130858929_7" function="internal">
        <lane id=":5130858929_7_0" index="0" allow="pedestrian delivery bicycle" speed="5.56" length="9.27" shape="-124.84,110.59 -122.08,110.53 -120.20,110.54 -118.32,110.62 -115.57,110.81"/>
    </edge>
    <edge id=":5130858929_8" function="internal">
        <lane id=":5130858929_8_0" index="0" allow="pedestrian delivery bicycle" speed="3.65" length="4.67" shape="-124.84,110.59 -123.62,111.36 -123.20,112.15 -123.59,112.96 -124.77,113.79"/>
    </edge>
    <edge id=":5130858930_0" function="internal">
        <lane id=":5130858930_0_0" index="0" allow="pedestrian delivery bicycle" speed="4.94" length="5.12" shape="-109.44,-36.50 -110.78,-36.96 -111.92,-36.86 -112.84,-36.19 -113.54,-34.96"/>
    </edge>
    <edge id=":5130858930_1" function="internal">
        <lane id=":5130858930_1_0" index="0" allow="pedestrian delivery bicycle" speed="5.56" length="9.43" shape="-109.44,-36.50 -117.83,-40.81"/>
    </edge>
    <edge id=":5130858930_2" function="internal">
        <lane id=":5130858930_2_0" index="0" allow="pedestrian delivery bicycle" speed="3.65" length="4.67" shape="-109.44,-36.50 -110.14,-37.76 -110.13,-38.65 -109.41,-39.18 -107.98,-39.35"/>
    </edge>
    <edge id=":5130858930_3" function="internal">
        <lane id=":5130858930_3_0" index="0" allow="pedestrian delivery bicycle" speed="5.56" length="9.43" shape="-116.37,-43.65 -107.98,-39.35"/>
    </edge>
    <edge id=":5130858930_4" function="internal">
        <lane id=":5130858930_4_0" index="0" allow="pedestrian delivery bicycle" speed="5.56" length="10.21" shape="-116.37,-43.65 -114.24,-42.11 -113.06,-40.14 -112.83,-37.76 -113.54,-34.96"/>
    </edge>
    <edge id=":5130858930_5" function="internal">
        <lane id=":5130858930_5_0" index="0" allow="pedestrian delivery bicycle" speed="3.65" length="4.67" shape="-116.37,-43.65 -115.67,-42.39 -115.68,-41.50 -116.40,-40.97 -117.83,-40.81"/>
    </edge>
    <edge id=":5130858930_6" function="internal">
        <lane id=":5130858930_6_0" index="0" allow="pedestrian delivery bicycle" speed="5.38" length="5.41" shape="-116.52,-36.14 -116.11,-37.67 -116.19,-38.96 -116.76,-40.01 -117.83,-40.81"/>
    </edge>
    <edge id=":5130858930_7" function="internal">
        <lane id=":5130858930_7_0" index="0" allow="pedestrian delivery bicycle" speed="5.56" length="10.65" shape="-116.52,-36.14 -115.05,-38.70 -113.13,-40.10 -110.78,-40.31 -107.98,-39.35"/>
    </edge>
    <edge id=":5130858930_8" function="internal">
        <lane id=":5130858930_8_0" index="0" allow="pedestrian delivery bicycle" speed="3.65" length="4.67" shape="-116.52,-36.14 -115.33,-36.96 -114.44,-37.03 -113.85,-36.37 -113.54,-34.96"/>
    </edge>
    <edge id=":5130858934_0" function="internal">
        <lane id=":5130858934_0_0" index="0" allow="pedestrian delivery bicycle" speed="5.56" length="8.43" shape="-119.03,40.98 -120.04,38.69 -120.69,37.10 -121.26,35.48 -122.01,33.10"/>
    </edge>
    <edge id=":5130858934_1" function="internal">
        <lane id=":5130858934_1_0" index="0" allow="pedestrian delivery bicycle" speed="3.65" length="1.44" shape="-119.03,40.98 -118.78,39.55"/>
    </edge>
    <edge id=":5130858934_4" function="internal">
        <lane id=":5130858934_4_0" index="0" allow="pedestrian delivery bicycle" speed="3.65" length="3.23" shape="-118.78,39.55 -118.22,38.86 -117.32,38.90 -116.10,39.67"/>
    </edge>
    <edge id=":5130858934_2" function="internal">
        <lane id=":5130858934_2_0" index="0" allow="pedestrian delivery bicycle" speed="5.56" length="8.07" shape="-118.96,32.14 -118.23,34.42 -117.69,35.97 -117.07,37.49 -116.10,39.67"/>
    </edge>
    <edge id=":5130858934_3" function="internal">
        <lane id=":5130858934_3_0" index="0" allow="pedestrian delivery bicycle" speed="3.65" length="1.44" shape="-118.96,32.14 -119.36,33.52"/>
    </edge>
    <edge id=":5130858934_5" function="internal">
        <lane id=":5130858934_5_0" index="0" allow="pedestrian delivery bicycle" speed="3.65" length="3.23" shape="-119.36,33.52 -120.01,34.14 -120.89,34.00 -122.01,33.10"/>
    </edge>
    <edge id=":5130858941_0" function="internal">
        <lane id=":5130858941_0_0" index="0" allow="pedestrian delivery bicycle" speed="5.56" length="7.43" shape="-89.42,40.92 -90.54,39.02 -91.24,37.67 -91.73,36.24 -92.22,34.10"/>
    </edge>
    <edge id=":5130858941_1" function="internal">
        <lane id=":5130858941_1_0" index="0" allow="pedestrian delivery bicycle" speed="3.65" length="1.44" shape="-89.42,40.92 -89.34,39.48"/>
    </edge>
    <edge id=":5130858941_4" function="internal">
        <lane id=":5130858941_4_0" index="0" allow="pedestrian delivery bicycle" speed="3.65" length="3.23" shape="-89.34,39.48 -88.85,38.73 -87.96,38.66 -86.66,39.29"/>
    </edge>
    <edge id=":5130858941_2" function="internal">
        <lane id=":5130858941_2_0" index="0" allow="pedestrian delivery bicycle" speed="5.56" length="6.38" shape="-89.09,33.45 -88.67,35.29 -88.24,36.51 -87.63,37.66 -86.66,39.29"/>
    </edge>
    <edge id=":5130858941_3" function="internal">
        <lane id=":5130858941_3_0" index="0" allow="pedestrian delivery bicycle" speed="3.65" length="1.44" shape="-89.09,33.45 -89.63,34.79"/>
    </edge>
    <edge id=":5130858941_5" function="internal">
        <lane id=":5130858941_5_0" index="0" allow="pedestrian delivery bicycle" speed="3.65" length="3.23" shape="-89.63,34.79 -90.33,35.34 -91.20,35.11 -92.22,34.10"/>
    </edge>
    <edge id=":5130858945_0" function="internal">
        <lane id=":5130858945_0_0" index="0" allow="pedestrian delivery bicycle" speed="5.34" length="5.13" shape="-55.50,-14.64 -56.95,-14.53 -58.06,-14.04 -58.83,-13.18 -59.26,-11.94"/>
    </edge>
    <edge id=":5130858945_1" function="internal">
        <lane id=":5130858945_1_0" index="0" allow="pedestrian delivery bicycle" speed="5.56" length="9.42" shape="-55.50,-14.64 -58.27,-14.87 -60.14,-15.25 -61.99,-15.82 -64.67,-16.60"/>
    </edge>
    <edge id=":5130858945_2" function="internal">
        <lane id=":5130858945_2_0" index="0" allow="pedestrian delivery bicycle" speed="3.68" length="4.78" shape="-55.50,-14.64 -56.48,-15.74 -56.67,-16.64 -56.07,-17.33 -54.68,-17.81"/>
    </edge>
    <edge id=":5130858945_3" function="internal">
        <lane id=":5130858945_3_0" index="0" allow="pedestrian delivery bicycle" speed="5.56" length="9.40" shape="-63.85,-19.69 -61.16,-18.92 -59.32,-18.38 -57.45,-18.02 -54.68,-17.81"/>
    </edge>
    <edge id=":5130858945_4" function="internal">
        <lane id=":5130858945_4_0" index="0" allow="pedestrian delivery bicycle" speed="5.56" length="10.10" shape="-63.85,-19.69 -61.41,-18.64 -59.83,-16.99 -59.11,-14.76 -59.26,-11.94"/>
    </edge>
    <edge id=":5130858945_5" function="internal">
        <lane id=":5130858945_5_0" index="0" allow="pedestrian delivery bicycle" speed="3.65" length="4.67" shape="-63.85,-19.69 -62.89,-18.61 -62.71,-17.74 -63.31,-17.07 -64.67,-16.60"/>
    </edge>
    <edge id=":5130858945_6" function="internal">
        <lane id=":5130858945_6_0" index="0" allow="pedestrian delivery bicycle" speed="5.27" length="5.23" shape="-62.40,-12.52 -62.32,-14.02 -62.67,-15.20 -63.45,-16.06 -64.67,-16.60"/>
    </edge>
    <edge id=":5130858945_7" function="internal">
        <lane id=":5130858945_7_0" index="0" allow="pedestrian delivery bicycle" speed="5.56" length="10.37" shape="-62.40,-12.52 -61.53,-14.95 -59.96,-16.64 -57.67,-17.59 -54.68,-17.81"/>
    </edge>
    <edge id=":5130858945_8" function="internal">
        <lane id=":5130858945_8_0" index="0" allow="pedestrian delivery bicycle" speed="3.65" length="4.67" shape="-62.40,-12.52 -61.40,-13.56 -60.54,-13.81 -59.83,-13.27 -59.26,-11.94"/>
    </edge>
    <edge id=":5130858947_0" function="internal">
        <lane id=":5130858947_0_0" index="0" allow="pedestrian delivery bicycle" speed="5.56" length="5.66" shape="-64.39,34.67 -64.89,33.07 -65.19,31.96 -65.42,30.83 -65.72,29.17"/>
    </edge>
    <edge id=":5130858947_1" function="internal">
        <lane id=":5130858947_1_0" index="0" allow="pedestrian delivery bicycle" speed="3.65" length="1.44" shape="-64.39,34.67 -64.00,33.28"/>
    </edge>
    <edge id=":5130858947_4" function="internal">
        <lane id=":5130858947_4_0" index="0" allow="pedestrian delivery bicycle" speed="3.65" length="3.23" shape="-64.00,33.28 -63.36,32.65 -62.47,32.79 -61.34,33.68"/>
    </edge>
    <edge id=":5130858947_2" function="internal">
        <lane id=":5130858947_2_0" index="0" allow="pedestrian delivery bicycle" speed="5.56" length="5.24" shape="-62.57,28.60 -62.29,30.13 -62.08,31.17 -61.81,32.20 -61.34,33.68"/>
    </edge>
    <edge id=":5130858947_3" function="internal">
        <lane id=":5130858947_3_0" index="0" allow="pedestrian delivery bicycle" speed="3.65" length="1.44" shape="-62.57,28.60 -63.14,29.92"/>
    </edge>
    <edge id=":5130858947_5" function="internal">
        <lane id=":5130858947_5_0" index="0" allow="pedestrian delivery bicycle" speed="3.65" length="3.23" shape="-63.14,29.92 -63.85,30.46 -64.71,30.21 -65.72,29.17"/>
    </edge>
    <edge id=":5130858948_0" function="internal">
        <lane id=":5130858948_0_0" index="0" allow="pedestrian delivery bicycle" speed="5.56" length="1.59" shape="-48.22,74.17 -48.08,74.62 -48.01,74.94 -47.99,75.26 -47.99,75.73"/>
    </edge>
    <edge id=":5130858948_1" function="internal">
        <lane id=":5130858948_1_0" index="0" allow="pedestrian delivery bicycle" speed="5.56" length="0.53" shape="-51.19,75.68 -51.19,75.52 -51.20,75.41 -51.22,75.30 -51.27,75.15"/>
    </edge>
    <edge id=":5130858951_0" function="internal">
        <lane id=":5130858951_0_0" index="0" allow="pedestrian delivery bicycle" speed="5.56" length="12.46" shape="-63.07,108.97 -65.74,111.03 -68.16,112.62 -70.77,113.78 -74.01,114.58"/>
    </edge>
    <edge id=":5130858951_1" function="internal">
        <lane id=":5130858951_1_0" index="0" allow="pedestrian delivery bicycle" speed="5.56" length="13.84" shape="-63.07,108.97 -66.68,111.11 -69.40,111.17 -71.21,109.15 -72.12,105.05"/>
    </edge>
    <edge id=":5130858951_2" function="internal">
        <lane id=":5130858951_2_0" index="0" allow="pedestrian delivery bicycle" speed="3.65" length="4.67" shape="-63.07,108.97 -64.50,109.08 -65.31,108.70 -65.49,107.82 -65.04,106.45"/>
    </edge>
    <edge id=":5130858951_3" function="internal">
        <lane id=":5130858951_3_0" index="0" allow="pedestrian delivery bicycle" speed="4.67" length="5.95" shape="-68.93,104.76 -68.54,106.53 -67.76,107.40 -66.59,107.37 -65.04,106.45"/>
    </edge>
    <edge id=":5130858951_4" function="internal">
        <lane id=":5130858951_4_0" index="0" allow="pedestrian delivery bicycle" speed="5.56" length="12.28" shape="-68.93,104.76 -68.95,108.69 -69.81,111.63 -71.49,113.59 -74.01,114.58"/>
    </edge>
    <edge id=":5130858951_5" function="internal">
        <lane id=":5130858951_5_0" index="0" allow="pedestrian delivery bicycle" speed="3.65" length="4.67" shape="-68.93,104.76 -69.62,106.03 -70.38,106.50 -71.22,106.17 -72.12,105.05"/>
    </edge>
    <edge id=":5130858951_6" function="internal">
        <lane id=":5130858951_6_0" index="0" allow="pedestrian delivery bicycle" speed="5.56" length="7.46" shape="-74.53,111.42 -73.28,110.84 -72.46,109.58 -72.07,107.65 -72.12,105.05"/>
    </edge>
    <edge id=":5130858951_7" function="internal">
        <lane id=":5130858951_7_0" index="0" allow="pedestrian delivery bicycle" speed="5.56" length="10.90" shape="-74.53,111.42 -71.52,110.73 -69.41,109.78 -67.49,108.41 -65.04,106.45"/>
    </edge>
    <edge id=":5130858951_8" function="internal">
        <lane id=":5130858951_8_0" index="0" allow="pedestrian delivery bicycle" speed="3.65" length="4.67" shape="-74.53,111.42 -73.22,112.01 -72.69,112.73 -72.95,113.59 -74.01,114.58"/>
    </edge>
    <edge id=":5130858953_0" function="internal">
        <lane id=":5130858953_0_0" index="0" allow="pedestrian delivery bicycle" speed="5.56" length="9.80" shape="-90.93,115.48 -100.72,115.11"/>
    </edge>
    <edge id=":5130858953_1" function="internal">
        <lane id=":5130858953_1_0" index="0" allow="pedestrian delivery bicycle" speed="5.56" length="10.41" shape="-90.93,115.48 -93.59,115.07 -95.55,113.82 -96.81,111.74 -97.37,108.83"/>
    </edge>
    <edge id=":5130858953_2" function="internal">
        <lane id=":5130858953_2_0" index="0" allow="pedestrian delivery bicycle" speed="3.65" length="4.67" shape="-90.93,115.48 -92.13,114.68 -92.53,113.88 -92.14,113.08 -90.94,112.28"/>
    </edge>
    <edge id=":5130858953_3" function="internal">
        <lane id=":5130858953_3_0" index="0" allow="pedestrian delivery bicycle" speed="5.35" length="5.49" shape="-94.18,108.62 -93.89,110.22 -93.25,111.37 -92.27,112.05 -90.94,112.28"/>
    </edge>
    <edge id=":5130858953_4" function="internal">
        <lane id=":5130858953_4_0" index="0" allow="pedestrian delivery bicycle" speed="5.56" length="10.87" shape="-94.18,108.62 -94.42,111.65 -95.59,113.74 -97.69,114.89 -100.72,115.11"/>
    </edge>
    <edge id=":5130858953_5" function="internal">
        <lane id=":5130858953_5_0" index="0" allow="pedestrian delivery bicycle" speed="3.65" length="4.67" shape="-94.18,108.62 -94.90,109.87 -95.67,110.32 -96.50,109.97 -97.37,108.83"/>
    </edge>
    <edge id=":5130858953_6" function="internal">
        <lane id=":5130858953_6_0" index="0" allow="pedestrian delivery bicycle" speed="4.91" length="5.17" shape="-100.49,111.92 -99.04,111.81 -98.04,111.27 -97.49,110.27 -97.37,108.83"/>
    </edge>
    <edge id=":5130858953_7" function="internal">
        <lane id=":5130858953_7_0" index="0" allow="pedestrian delivery bicycle" speed="5.56" length="9.55" shape="-100.49,111.92 -90.94,112.28"/>
    </edge>
    <edge id=":5130858953_8" function="internal">
        <lane id=":5130858953_8_0" index="0" allow="pedestrian delivery bicycle" speed="3.65" length="4.67" shape="-100.49,111.92 -99.35,112.80 -99.01,113.63 -99.46,114.40 -100.72,115.11"/>
    </edge>
    <edge id=":5130858954_0" function="internal">
        <lane id=":5130858954_0_0" index="0" allow="pedestrian delivery bicycle" speed="5.23" length="4.57" shape="-133.33,113.95 -134.39,114.16 -135.23,114.73 -135.85,115.66 -136.25,116.96"/>
    </edge>
    <edge id=":5130858954_1" function="internal">
        <lane id=":5130858954_1_0" index="0" allow="pedestrian delivery bicycle" speed="5.56" length="9.61" shape="-133.33,113.95 -135.81,113.61 -137.63,112.49 -138.76,110.57 -139.23,107.87"/>
    </edge>
    <edge id=":5130858954_2" function="internal">
        <lane id=":5130858954_2_0" index="0" allow="pedestrian delivery bicycle" speed="3.65" length="4.67" shape="-133.33,113.95 -134.54,113.18 -134.96,112.38 -134.57,111.58 -133.39,110.75"/>
    </edge>
    <edge id=":5130858954_3" function="internal">
        <lane id=":5130858954_3_0" index="0" allow="pedestrian delivery bicycle" speed="4.88" length="4.54" shape="-136.03,107.74 -135.82,109.08 -135.31,110.02 -134.50,110.58 -133.39,110.75"/>
    </edge>
    <edge id=":5130858954_4" function="internal">
        <lane id=":5130858954_4_0" index="0" allow="pedestrian delivery bicycle" speed="5.56" length="9.27" shape="-136.03,107.74 -135.86,110.49 -135.74,112.38 -135.81,114.26 -136.25,116.96"/>
    </edge>
    <edge id=":5130858954_5" function="internal">
        <lane id=":5130858954_5_0" index="0" allow="pedestrian delivery bicycle" speed="3.65" length="4.67" shape="-136.03,107.74 -136.78,108.97 -137.56,109.40 -138.38,109.04 -139.23,107.87"/>
    </edge>
    <edge id=":5130858954_6" function="internal">
        <lane id=":5130858954_6_0" index="0" allow="pedestrian delivery bicycle" speed="5.56" length="8.95" shape="-139.47,116.78 -139.05,114.17 -138.96,112.36 -139.07,110.53 -139.23,107.87"/>
    </edge>
    <edge id=":5130858954_7" function="internal">
        <lane id=":5130858954_7_0" index="0" allow="pedestrian delivery bicycle" speed="5.56" length="9.36" shape="-139.47,116.78 -138.66,114.18 -137.37,112.31 -135.62,111.17 -133.39,110.75"/>
    </edge>
    <edge id=":5130858954_8" function="internal">
        <lane id=":5130858954_8_0" index="0" allow="pedestrian delivery bicycle" speed="3.66" length="4.72" shape="-139.47,116.78 -138.60,115.62 -137.77,115.26 -136.98,115.71 -136.25,116.96"/>
    </edge>
    <edge id=":5130858961_0" function="internal">
        <lane id=":5130858961_0_0" index="0" allow="pedestrian delivery bicycle" speed="5.09" length="4.94" shape="-80.80,-22.43 -82.12,-22.71 -83.22,-22.51 -84.12,-21.84 -84.82,-20.68"/>
    </edge>
    <edge id=":5130858961_1" function="internal">
        <lane id=":5130858961_1_0" index="0" allow="pedestrian delivery bicycle" speed="5.56" length="9.21" shape="-80.80,-22.43 -83.36,-23.38 -85.10,-24.08 -86.79,-24.88 -89.23,-26.12"/>
    </edge>
    <edge id=":5130858961_2" function="internal">
        <lane id=":5130858961_2_0" index="0" allow="pedestrian delivery bicycle" speed="3.65" length="4.67" shape="-80.80,-22.43 -81.65,-23.59 -81.75,-24.48 -81.10,-25.09 -79.69,-25.43"/>
    </edge>
    <edge id=":5130858961_3" function="internal">
        <lane id=":5130858961_3_0" index="0" allow="pedestrian delivery bicycle" speed="5.56" length="8.82" shape="-87.76,-28.96 -85.43,-27.78 -83.81,-27.01 -82.15,-26.34 -79.69,-25.43"/>
    </edge>
    <edge id=":5130858961_4" function="internal">
        <lane id=":5130858961_4_0" index="0" allow="pedestrian delivery bicycle" speed="5.56" length="9.87" shape="-87.76,-28.96 -85.59,-27.43 -84.38,-25.53 -84.12,-23.29 -84.82,-20.68"/>
    </edge>
    <edge id=":5130858961_5" function="internal">
        <lane id=":5130858961_5_0" index="0" allow="pedestrian delivery bicycle" speed="3.65" length="4.67" shape="-87.76,-28.96 -87.06,-27.71 -87.07,-26.81 -87.79,-26.28 -89.23,-26.12"/>
    </edge>
    <edge id=":5130858961_6" function="internal">
        <lane id=":5130858961_6_0" index="0" allow="pedestrian delivery bicycle" speed="5.16" length="4.98" shape="-87.77,-21.93 -87.41,-23.25 -87.53,-24.39 -88.14,-25.35 -89.23,-26.12"/>
    </edge>
    <edge id=":5130858961_7" function="internal">
        <lane id=":5130858961_7_0" index="0" allow="pedestrian delivery bicycle" speed="5.56" length="9.93" shape="-87.77,-21.93 -86.37,-24.25 -84.56,-25.60 -82.34,-26.00 -79.69,-25.43"/>
    </edge>
    <edge id=":5130858961_8" function="internal">
        <lane id=":5130858961_8_0" index="0" allow="pedestrian delivery bicycle" speed="3.65" length="4.67" shape="-87.77,-21.93 -86.56,-22.72 -85.67,-22.78 -85.09,-22.10 -84.82,-20.68"/>
    </edge>
    <edge id=":5130858964_0" function="internal">
        <lane id=":5130858964_0_0" index="0" allow="pedestrian delivery bicycle" speed="3.65" length="4.67" shape="-240.11,-80.47 -241.30,-81.29 -241.69,-82.09 -241.28,-82.89 -240.07,-83.67"/>
    </edge>
    <edge id=":5130858965_0" function="internal">
        <lane id=":5130858965_0_0" index="0" allow="pedestrian delivery bicycle" speed="5.56" length="7.95" shape="-141.06,150.49 -142.70,149.25 -144.48,148.51 -146.38,148.25 -148.42,148.48"/>
    </edge>
    <edge id=":5130858965_1" function="internal">
        <lane id=":5130858965_1_0" index="0" allow="pedestrian delivery bicycle" speed="5.56" length="7.84" shape="-141.06,150.49 -142.93,148.54 -144.19,146.80 -144.82,145.27 -144.84,143.94"/>
    </edge>
    <edge id=":5130858965_2" function="internal">
        <lane id=":5130858965_2_0" index="0" allow="pedestrian delivery bicycle" speed="3.71" length="4.90" shape="-141.06,150.49 -141.84,149.19 -141.85,148.25 -141.11,147.68 -139.61,147.46"/>
    </edge>
    <edge id=":5130858965_3" function="internal">
        <lane id=":5130858965_3_0" index="0" allow="pedestrian delivery bicycle" speed="5.45" length="3.62" shape="-141.72,144.67 -141.59,145.42 -141.03,146.17 -140.28,146.87 -139.61,147.46"/>
    </edge>
    <edge id=":5130858965_4" function="internal">
        <lane id=":5130858965_4_0" index="0" allow="pedestrian delivery bicycle" speed="5.56" length="8.01" shape="-141.72,144.67 -142.36,145.81 -143.68,146.83 -145.70,147.72 -148.42,148.48"/>
    </edge>
    <edge id=":5130858965_5" function="internal">