<configuration>
    <input>
        <net-file value="map1.net.xml"/>
        <route-files value="map.rou.xml"/>
    </input>
    <time>
        <begin value="0"/>
        <end value="60"/>
        <step-length value="0.1"/>
    </time>
    <gui_only>
		<start value="true"/>
	</gui_only>
</configuration>
