<?xml version="1.0" encoding="UTF-8"?>

<!-- generated on 2025-03-07 11:21:20 by Eclipse SUMO netedit Version 1.22.0
<neteditConfiguration xmlns:xsi="http://www.w3.org/2001/XMLSchema-instance" xsi:noNamespaceSchemaLocation="http://sumo.dlr.de/xsd/neteditConfiguration.xsd">

    <input>
        <sumocfg-file value="/home/tony/CorridorCalibration/sumo/CMI/cmi_1.sumocfg"/>
        <sumo-net-file value="/home/tony/CorridorCalibration/sumo/CMI/map.net.xml"/>
    </input>

    <output>
        <output-file value="/home/tony/CorridorCalibration/sumo/CMI/map.net.xml"/>
    </output>

    <processing>
        <geometry.min-radius.fix.railways value="false"/>
        <geometry.max-grade.fix value="false"/>
        <offset.disable-normalization value="true"/>
        <lefthand value="0"/>
    </processing>

    <junctions>
        <no-turnarounds value="true"/>
        <junctions.corner-detail value="5"/>
        <junctions.limit-turn-speed value="5.50"/>
        <rectangular-lane-cut value="0"/>
    </junctions>

    <pedestrian>
        <walkingareas value="0"/>
    </pedestrian>

</neteditConfiguration>
-->

<net version="1.20" junctionCornerDetail="5" limitTurnSpeed="5.50" xmlns:xsi="http://www.w3.org/2001/XMLSchema-instance" xsi:noNamespaceSchemaLocation="http://sumo.dlr.de/xsd/net_file.xsd">

    <location netOffset="-378969.24,-3853175.90" convBoundary="0.00,0.00,380.90,468.63" origBoundary="-82.323306,34.813650,-82.319210,34.817920" projParameter="+proj=utm +zone=17 +ellps=WGS84 +datum=WGS84 +units=m +no_defs"/>

    <type id="highway.footway" priority="1" numLanes="1" speed="2.78" allow="pedestrian" oneway="1" width="2.00"/>
    <type id="highway.service" priority="1" numLanes="1" speed="5.56" allow="pedestrian delivery bicycle" oneway="0"/>
    <type id="highway.steps" priority="1" numLanes="1" speed="1.39" allow="pedestrian" oneway="1" width="2.00"/>

    <edge id=":11984483009_0" function="internal">
        <lane id=":11984483009_0_0" index="0" allow="pedestrian delivery bicycle" speed="5.56" length="4.85" shape="133.49,350.66 128.64,350.75"/>
    </edge>
    <edge id=":11984483009_1" function="internal">
        <lane id=":11984483009_1_0" index="0" allow="pedestrian delivery bicycle" speed="3.65" length="1.44" shape="133.49,350.66 132.28,349.88"/>
    </edge>
    <edge id=":11984483009_4" function="internal">
        <lane id=":11984483009_4_0" index="0" allow="pedestrian delivery bicycle" speed="3.65" length="3.23" shape="132.28,349.88 131.86,349.09 132.25,348.28 133.43,347.46"/>
    </edge>
    <edge id=":11984483009_2" function="internal">
        <lane id=":11984483009_2_0" index="0" allow="pedestrian delivery bicycle" speed="5.56" length="4.85" shape="128.58,347.55 133.43,347.46"/>
    </edge>
    <edge id=":11984483009_3" function="internal">
        <lane id=":11984483009_3_0" index="0" allow="pedestrian delivery bicycle" speed="3.65" length="1.44" shape="128.58,347.55 129.80,348.33"/>
    </edge>
    <edge id=":11984483009_5" function="internal">
        <lane id=":11984483009_5_0" index="0" allow="pedestrian delivery bicycle" speed="3.65" length="3.23" shape="129.80,348.33 130.21,349.12 129.83,349.93 128.64,350.75"/>
    </edge>
    <edge id=":5130858711_0" function="internal">
        <lane id=":5130858711_0_0" index="0" allow="pedestrian delivery bicycle" speed="5.56" length="4.89" shape="257.42,236.54 256.12,235.91 255.24,235.44 254.41,234.90 253.21,234.08"/>
    </edge>
    <edge id=":5130858711_1" function="internal">
        <lane id=":5130858711_1_0" index="0" allow="pedestrian delivery bicycle" speed="3.65" length="1.44" shape="257.42,236.54 256.68,235.31"/>
    </edge>
    <edge id=":5130858711_4" function="internal">
        <lane id=":5130858711_4_0" index="0" allow="pedestrian delivery bicycle" speed="3.65" length="3.23" shape="256.68,235.31 256.65,234.41 257.35,233.86 258.78,233.64"/>
    </edge>
    <edge id=":5130858711_2" function="internal">
        <lane id=":5130858711_2_0" index="0" allow="pedestrian delivery bicycle" speed="5.56" length="4.36" shape="255.02,231.44 256.09,232.18 256.83,232.66 257.61,233.08 258.78,233.64"/>
    </edge>
    <edge id=":5130858711_3" function="internal">
        <lane id=":5130858711_3_0" index="0" allow="pedestrian delivery bicycle" speed="3.65" length="1.44" shape="255.02,231.44 255.56,232.78"/>
    </edge>
    <edge id=":5130858711_5" function="internal">
        <lane id=":5130858711_5_0" index="0" allow="pedestrian delivery bicycle" speed="3.65" length="3.23" shape="255.56,232.78 255.44,233.67 254.65,234.10 253.21,234.08"/>
    </edge>
    <edge id=":5130858720_0" function="internal">
        <lane id=":5130858720_0_0" index="0" allow="pedestrian delivery bicycle" speed="4.95" length="5.11" shape="122.44,184.97 121.10,184.51 119.97,184.61 119.04,185.28 118.33,186.51"/>
    </edge>
    <edge id=":5130858720_1" function="internal">
        <lane id=":5130858720_1_0" index="0" allow="pedestrian delivery bicycle" speed="5.56" length="9.43" shape="122.44,184.97 114.05,180.67"/>
    </edge>
    <edge id=":5130858720_2" function="internal">
        <lane id=":5130858720_2_0" index="0" allow="pedestrian delivery bicycle" speed="3.65" length="4.67" shape="122.44,184.97 121.74,183.71 121.75,182.82 122.47,182.29 123.90,182.12"/>
    </edge>
    <edge id=":5130858720_3" function="internal">
        <lane id=":5130858720_3_0" index="0" allow="pedestrian delivery bicycle" speed="5.56" length="9.43" shape="115.52,177.82 123.90,182.12"/>
    </edge>
    <edge id=":5130858720_4" function="internal">
        <lane id=":5130858720_4_0" index="0" allow="pedestrian delivery bicycle" speed="5.56" length="10.21" shape="115.52,177.82 117.65,179.37 118.83,181.33 119.06,183.71 118.33,186.51"/>
    </edge>
    <edge id=":5130858720_5" function="internal">
        <lane id=":5130858720_5_0" index="0" allow="pedestrian delivery bicycle" speed="3.65" length="4.67" shape="115.52,177.82 116.22,179.08 116.21,179.98 115.49,180.50 114.05,180.67"/>
    </edge>
    <edge id=":5130858720_6" function="internal">
        <lane id=":5130858720_6_0" index="0" allow="pedestrian delivery bicycle" speed="5.37" length="5.39" shape="115.36,185.32 115.78,183.79 115.70,182.51 115.12,181.47 114.05,180.67"/>
    </edge>
    <edge id=":5130858720_7" function="internal">
        <lane id=":5130858720_7_0" index="0" allow="pedestrian delivery bicycle" speed="5.56" length="10.63" shape="115.36,185.32 116.84,182.76 118.75,181.38 121.11,181.17 123.90,182.12"/>
    </edge>
    <edge id=":5130858720_8" function="internal">
        <lane id=":5130858720_8_0" index="0" allow="pedestrian delivery bicycle" speed="3.65" length="4.67" shape="115.36,185.32 116.55,184.50 117.44,184.43 118.04,185.10 118.33,186.51"/>
    </edge>
    <edge id=":5130858924_0" function="internal">
        <lane id=":5130858924_0_0" index="0" allow="pedestrian delivery bicycle" speed="5.56" length="8.44" shape="108.47,270.83 108.12,268.35 107.80,266.66 107.37,265.00 106.69,262.59"/>
    </edge>
    <edge id=":5130858924_1" function="internal">
        <lane id=":5130858924_1_0" index="0" allow="pedestrian delivery bicycle" speed="3.65" length="1.44" shape="108.47,270.83 109.10,269.53"/>
    </edge>
    <edge id=":5130858924_4" function="internal">
        <lane id=":5130858924_4_0" index="0" allow="pedestrian delivery bicycle" speed="3.65" length="3.23" shape="109.10,269.53 109.84,269.03 110.69,269.31 111.64,270.40"/>
    </edge>
    <edge id=":5130858924_2" function="internal">
        <lane id=":5130858924_2_0" index="0" allow="pedestrian delivery bicycle" speed="5.56" length="8.90" shape="109.76,261.71 110.49,264.25 110.94,266.00 111.27,267.78 111.64,270.40"/>
    </edge>
    <edge id=":5130858924_3" function="internal">
        <lane id=":5130858924_3_0" index="0" allow="pedestrian delivery bicycle" speed="3.65" length="1.44" shape="109.76,261.71 109.32,263.08"/>
    </edge>
    <edge id=":5130858924_5" function="internal">
        <lane id=":5130858924_5_0" index="0" allow="pedestrian delivery bicycle" speed="3.65" length="3.23" shape="109.32,263.08 108.66,263.69 107.79,263.53 106.69,262.59"/>
    </edge>
    <edge id=":5130858929_0" function="internal">
        <lane id=":5130858929_0_0" index="0" allow="pedestrian delivery bicycle" speed="5.56" length="8.98" shape="145.97,350.80 143.31,350.62 141.49,350.54 139.66,350.54 137.00,350.59"/>
    </edge>
    <edge id=":5130858929_1" function="internal">
        <lane id=":5130858929_1_0" index="0" allow="pedestrian delivery bicycle" speed="5.56" length="9.97" shape="145.97,350.80 143.45,350.23 141.60,348.93 140.42,346.91 139.92,344.17"/>
    </edge>
    <edge id=":5130858929_2" function="internal">
        <lane id=":5130858929_2_0" index="0" allow="pedestrian delivery bicycle" speed="3.65" length="4.67" shape="145.97,350.80 144.83,349.92 144.49,349.09 144.94,348.32 146.20,347.61"/>
    </edge>
    <edge id=":5130858929_3" function="internal">
        <lane id=":5130858929_3_0" index="0" allow="pedestrian delivery bicycle" speed="5.38" length="5.27" shape="143.11,343.99 143.38,345.50 143.98,346.60 144.92,347.30 146.20,347.61"/>
    </edge>
    <edge id=":5130858929_4" function="internal">
        <lane id=":5130858929_4_0" index="0" allow="pedestrian delivery bicycle" speed="5.56" length="10.34" shape="143.11,343.99 142.86,346.83 141.76,348.87 139.81,350.13 137.00,350.59"/>
    </edge>
    <edge id=":5130858929_5" function="internal">
        <lane id=":5130858929_5_0" index="0" allow="pedestrian delivery bicycle" speed="3.65" length="4.67" shape="143.11,343.99 142.38,345.24 141.60,345.68 140.78,345.33 139.92,344.17"/>
    </edge>
    <edge id=":5130858929_6" function="internal">
        <lane id=":5130858929_6_0" index="0" allow="pedestrian delivery bicycle" speed="5.00" length="5.04" shape="136.93,347.39 138.30,347.16 139.26,346.55 139.80,345.55 139.92,344.17"/>
    </edge>
    <edge id=":5130858929_7" function="internal">
        <lane id=":5130858929_7_0" index="0" allow="pedestrian delivery bicycle" speed="5.56" length="9.27" shape="136.93,347.39 139.69,347.33 141.57,347.34 143.45,347.42 146.20,347.61"/>
    </edge>
    <edge id=":5130858929_8" function="internal">
        <lane id=":5130858929_8_0" index="0" allow="pedestrian delivery bicycle" speed="3.65" length="4.67" shape="136.93,347.39 138.15,348.16 138.57,348.95 138.18,349.76 137.00,350.59"/>
    </edge>
    <edge id=":5130858930_0" function="internal">
        <lane id=":5130858930_0_0" index="0" allow="pedestrian delivery bicycle" speed="4.94" length="5.12" shape="152.33,200.30 150.99,199.84 149.85,199.94 148.93,200.61 148.23,201.84"/>
    </edge>
    <edge id=":5130858930_1" function="internal">
        <lane id=":5130858930_1_0" index="0" allow="pedestrian delivery bicycle" speed="5.56" length="9.43" shape="152.33,200.30 143.94,195.99"/>
    </edge>
    <edge id=":5130858930_2" function="internal">
        <lane id=":5130858930_2_0" index="0" allow="pedestrian delivery bicycle" speed="3.65" length="4.67" shape="152.33,200.30 151.63,199.04 151.64,198.15 152.36,197.62 153.79,197.45"/>
    </edge>
    <edge id=":5130858930_3" function="internal">
        <lane id=":5130858930_3_0" index="0" allow="pedestrian delivery bicycle" speed="5.56" length="9.43" shape="145.40,193.15 153.79,197.45"/>
    </edge>
    <edge id=":5130858930_4" function="internal">
        <lane id=":5130858930_4_0" index="0" allow="pedestrian delivery bicycle" speed="5.56" length="10.21" shape="145.40,193.15 147.53,194.69 148.71,196.66 148.94,199.04 148.23,201.84"/>
    </edge>
    <edge id=":5130858930_5" function="internal">
        <lane id=":5130858930_5_0" index="0" allow="pedestrian delivery bicycle" speed="3.65" length="4.67" shape="145.40,193.15 146.10,194.41 146.09,195.30 145.37,195.83 143.94,195.99"/>
    </edge>
    <edge id=":5130858930_6" function="internal">
        <lane id=":5130858930_6_0" index="0" allow="pedestrian delivery bicycle" speed="5.38" length="5.41" shape="145.25,200.66 145.66,199.13 145.58,197.84 145.01,196.79 143.94,195.99"/>
    </edge>
    <edge id=":5130858930_7" function="internal">
        <lane id=":5130858930_7_0" index="0" allow="pedestrian delivery bicycle" speed="5.56" length="10.65" shape="145.25,200.66 146.72,198.10 148.64,196.70 150.99,196.49 153.79,197.45"/>
    </edge>
    <edge id=":5130858930_8" function="internal">
        <lane id=":5130858930_8_0" index="0" allow="pedestrian delivery bicycle" speed="3.65" length="4.67" shape="145.25,200.66 146.44,199.84 147.33,199.77 147.92,200.43 148.23,201.84"/>
    </edge>
    <edge id=":5130858934_0" function="internal">
        <lane id=":5130858934_0_0" index="0" allow="pedestrian delivery bicycle" speed="5.56" length="8.43" shape="142.74,277.78 141.73,275.49 141.08,273.90 140.51,272.28 139.76,269.90"/>
    </edge>
    <edge id=":5130858934_1" function="internal">
        <lane id=":5130858934_1_0" index="0" allow="pedestrian delivery bicycle" speed="3.65" length="1.44" shape="142.74,277.78 142.99,276.35"/>
    </edge>
    <edge id=":5130858934_4" function="internal">
        <lane id=":5130858934_4_0" index="0" allow="pedestrian delivery bicycle" speed="3.65" length="3.23" shape="142.99,276.35 143.55,275.66 144.45,275.70 145.67,276.47"/>
    </edge>
    <edge id=":5130858934_2" function="internal">
        <lane id=":5130858934_2_0" index="0" allow="pedestrian delivery bicycle" speed="5.56" length="8.07" shape="142.81,268.94 143.54,271.22 144.08,272.77 144.70,274.29 145.67,276.47"/>
    </edge>
    <edge id=":5130858934_3" function="internal">
        <lane id=":5130858934_3_0" index="0" allow="pedestrian delivery bicycle" speed="3.65" length="1.44" shape="142.81,268.94 142.41,270.32"/>
    </edge>
    <edge id=":5130858934_5" function="internal">
        <lane id=":5130858934_5_0" index="0" allow="pedestrian delivery bicycle" speed="3.65" length="3.23" shape="142.41,270.32 141.76,270.94 140.88,270.80 139.76,269.90"/>
    </edge>
    <edge id=":5130858941_0" function="internal">
        <lane id=":5130858941_0_0" index="0" allow="pedestrian delivery bicycle" speed="5.56" length="7.43" shape="172.35,277.72 171.23,275.82 170.53,274.47 170.04,273.04 169.55,270.90"/>
    </edge>
    <edge id=":5130858941_1" function="internal">
        <lane id=":5130858941_1_0" index="0" allow="pedestrian delivery bicycle" speed="3.65" length="1.44" shape="172.35,277.72 172.43,276.28"/>
    </edge>
    <edge id=":5130858941_4" function="internal">
        <lane id=":5130858941_4_0" index="0" allow="pedestrian delivery bicycle" speed="3.65" length="3.23" shape="172.43,276.28 172.92,275.53 173.81,275.46 175.11,276.09"/>
    </edge>
    <edge id=":5130858941_2" function="internal">
        <lane id=":5130858941_2_0" index="0" allow="pedestrian delivery bicycle" speed="5.56" length="6.38" shape="172.68,270.25 173.10,272.09 173.53,273.31 174.14,274.46 175.11,276.09"/>
    </edge>
    <edge id=":5130858941_3" function="internal">
        <lane id=":5130858941_3_0" index="0" allow="pedestrian delivery bicycle" speed="3.65" length="1.44" shape="172.68,270.25 172.14,271.59"/>
    </edge>
    <edge id=":5130858941_5" function="internal">
        <lane id=":5130858941_5_0" index="0" allow="pedestrian delivery bicycle" speed="3.65" length="3.23" shape="172.14,271.59 171.44,272.14 170.57,271.91 169.55,270.90"/>
    </edge>
    <edge id=":5130858945_0" function="internal">
        <lane id=":5130858945_0_0" index="0" allow="pedestrian delivery bicycle" speed="5.34" length="5.13" shape="206.27,222.16 204.82,222.27 203.71,222.76 202.94,223.62 202.51,224.86"/>
    </edge>
    <edge id=":5130858945_1" function="internal">
        <lane id=":5130858945_1_0" index="0" allow="pedestrian delivery bicycle" speed="5.56" length="9.42" shape="206.27,222.16 203.50,221.93 201.63,221.55 199.78,220.98 197.10,220.20"/>
    </edge>
    <edge id=":5130858945_2" function="internal">
        <lane id=":5130858945_2_0" index="0" allow="pedestrian delivery bicycle" speed="3.68" length="4.78" shape="206.27,222.16 205.29,221.06 205.10,220.16 205.70,219.47 207.09,218.99"/>
    </edge>
    <edge id=":5130858945_3" function="internal">
        <lane id=":5130858945_3_0" index="0" allow="pedestrian delivery bicycle" speed="5.56" length="9.40" shape="197.92,217.11 200.61,217.88 202.45,218.42 204.32,218.78 207.09,218.99"/>
    </edge>
    <edge id=":5130858945_4" function="internal">
        <lane id=":5130858945_4_0" index="0" allow="pedestrian delivery bicycle" speed="5.56" length="10.10" shape="197.92,217.11 200.36,218.16 201.94,219.81 202.66,222.04 202.51,224.86"/>
    </edge>
    <edge id=":5130858945_5" function="internal">
        <lane id=":5130858945_5_0" index="0" allow="pedestrian delivery bicycle" speed="3.65" length="4.67" shape="197.92,217.11 198.88,218.19 199.06,219.06 198.46,219.73 197.10,220.20"/>
    </edge>
    <edge id=":5130858945_6" function="internal">
        <lane id=":5130858945_6_0" index="0" allow="pedestrian delivery bicycle" speed="5.27" length="5.23" shape="199.37,224.28 199.45,222.78 199.10,221.60 198.32,220.74 197.10,220.20"/>
    </edge>
    <edge id=":5130858945_7" function="internal">
        <lane id=":5130858945_7_0" index="0" allow="pedestrian delivery bicycle" speed="5.56" length="10.37" shape="199.37,224.28 200.24,221.85 201.81,220.16 204.10,219.21 207.09,218.99"/>
    </edge>
    <edge id=":5130858945_8" function="internal">
        <lane id=":5130858945_8_0" index="0" allow="pedestrian delivery bicycle" speed="3.65" length="4.67" shape="199.37,224.28 200.37,223.24 201.23,222.99 201.94,223.53 202.51,224.86"/>
    </edge>
    <edge id=":5130858947_0" function="internal">
        <lane id=":5130858947_0_0" index="0" allow="pedestrian delivery bicycle" speed="5.56" length="5.66" shape="197.38,271.47 196.88,269.87 196.58,268.76 196.35,267.63 196.05,265.97"/>
    </edge>
    <edge id=":5130858947_1" function="internal">
        <lane id=":5130858947_1_0" index="0" allow="pedestrian delivery bicycle" speed="3.65" length="1.44" shape="197.38,271.47 197.77,270.08"/>
    </edge>
    <edge id=":5130858947_4" function="internal">
        <lane id=":5130858947_4_0" index="0" allow="pedestrian delivery bicycle" speed="3.65" length="3.23" shape="197.77,270.08 198.41,269.45 199.30,269.59 200.43,270.48"/>
    </edge>
    <edge id=":5130858947_2" function="internal">
        <lane id=":5130858947_2_0" index="0" allow="pedestrian delivery bicycle" speed="5.56" length="5.24" shape="199.20,265.40 199.48,266.93 199.69,267.97 199.96,269.00 200.43,270.48"/>
    </edge>
    <edge id=":5130858947_3" function="internal">
        <lane id=":5130858947_3_0" index="0" allow="pedestrian delivery bicycle" speed="3.65" length="1.44" shape="199.20,265.40 198.63,266.72"/>
    </edge>
    <edge id=":5130858947_5" function="internal">
        <lane id=":5130858947_5_0" index="0" allow="pedestrian delivery bicycle" speed="3.65" length="3.23" shape="198.63,266.72 197.92,267.26 197.06,267.01 196.05,265.97"/>
    </edge>
    <edge id=":5130858948_0" function="internal">
        <lane id=":5130858948_0_0" index="0" allow="pedestrian delivery bicycle" speed="5.56" length="1.59" shape="213.55,310.97 213.69,311.42 213.76,311.74 213.78,312.06 213.78,312.53"/>
    </edge>
    <edge id=":5130858948_1" function="internal">
        <lane id=":5130858948_1_0" index="0" allow="pedestrian delivery bicycle" speed="5.56" length="0.53" shape="210.58,312.48 210.58,312.32 210.57,312.21 210.55,312.10 210.50,311.95"/>
    </edge>
    <edge id=":5130858951_0" function="internal">
        <lane id=":5130858951_0_0" index="0" allow="pedestrian delivery bicycle" speed="5.56" length="12.46" shape="198.70,345.77 196.03,347.83 193.61,349.42 191.00,350.58 187.76,351.38"/>
    </edge>
    <edge id=":5130858951_1" function="internal">
        <lane id=":5130858951_1_0" index="0" allow="pedestrian delivery bicycle" speed="5.56" length="13.84" shape="198.70,345.77 195.09,347.91 192.37,347.97 190.56,345.95 189.65,341.85"/>
    </edge>
    <edge id=":5130858951_2" function="internal">
        <lane id=":5130858951_2_0" index="0" allow="pedestrian delivery bicycle" speed="3.65" length="4.67" shape="198.70,345.77 197.27,345.88 196.46,345.50 196.28,344.62 196.73,343.25"/>
    </edge>
    <edge id=":5130858951_3" function="internal">
        <lane id=":5130858951_3_0" index="0" allow="pedestrian delivery bicycle" speed="4.67" length="5.95" shape="192.84,341.56 193.23,343.33 194.01,344.20 195.18,344.17 196.73,343.25"/>
    </edge>
    <edge id=":5130858951_4" function="internal">
        <lane id=":5130858951_4_0" index="0" allow="pedestrian delivery bicycle" speed="5.56" length="12.28" shape="192.84,341.56 192.82,345.49 191.96,348.43 190.28,350.39 187.76,351.38"/>
    </edge>
    <edge id=":5130858951_5" function="internal">
        <lane id=":5130858951_5_0" index="0" allow="pedestrian delivery bicycle" speed="3.65" length="4.67" shape="192.84,341.56 192.15,342.83 191.39,343.30 190.55,342.97 189.65,341.85"/>
    </edge>
    <edge id=":5130858951_6" function="internal">
        <lane id=":5130858951_6_0" index="0" allow="pedestrian delivery bicycle" speed="5.56" length="7.46" shape="187.24,348.22 188.49,347.64 189.31,346.38 189.70,344.45 189.65,341.85"/>
    </edge>
    <edge id=":5130858951_7" function="internal">
        <lane id=":5130858951_7_0" index="0" allow="pedestrian delivery bicycle" speed="5.56" length="10.90" shape="187.24,348.22 190.25,347.53 192.36,346.58 194.28,345.21 196.73,343.25"/>
    </edge>
    <edge id=":5130858951_8" function="internal">
        <lane id=":5130858951_8_0" index="0" allow="pedestrian delivery bicycle" speed="3.65" length="4.67" shape="187.24,348.22 188.55,348.81 189.08,349.53 188.82,350.39 187.76,351.38"/>
    </edge>
    <edge id=":5130858953_0" function="internal">
        <lane id=":5130858953_0_0" index="0" allow="pedestrian delivery bicycle" speed="5.56" length="9.80" shape="170.84,352.28 161.05,351.91"/>
    </edge>
    <edge id=":5130858953_1" function="internal">
        <lane id=":5130858953_1_0" index="0" allow="pedestrian delivery bicycle" speed="5.56" length="10.41" shape="170.84,352.28 168.18,351.87 166.22,350.62 164.96,348.54 164.40,345.63"/>
    </edge>
    <edge id=":5130858953_2" function="internal">
        <lane id=":5130858953_2_0" index="0" allow="pedestrian delivery bicycle" speed="3.65" length="4.67" shape="170.84,352.28 169.64,351.48 169.24,350.68 169.63,349.88 170.83,349.08"/>
    </edge>
    <edge id=":5130858953_3" function="internal">
        <lane id=":5130858953_3_0" index="0" allow="pedestrian delivery bicycle" speed="5.35" length="5.49" shape="167.59,345.42 167.88,347.02 168.52,348.17 169.50,348.85 170.83,349.08"/>
    </edge>
    <edge id=":5130858953_4" function="internal">
        <lane id=":5130858953_4_0" index="0" allow="pedestrian delivery bicycle" speed="5.56" length="10.87" shape="167.59,345.42 167.35,348.45 166.18,350.54 164.08,351.69 161.05,351.91"/>
    </edge>
    <edge id=":5130858953_5" function="internal">
        <lane id=":5130858953_5_0" index="0" allow="pedestrian delivery bicycle" speed="3.65" length="4.67" shape="167.59,345.42 166.87,346.67 166.10,347.12 165.27,346.77 164.40,345.63"/>
    </edge>
    <edge id=":5130858953_6" function="internal">
        <lane id=":5130858953_6_0" index="0" allow="pedestrian delivery bicycle" speed="4.91" length="5.17" shape="161.28,348.72 162.73,348.61 163.73,348.07 164.28,347.07 164.40,345.63"/>
    </edge>
    <edge id=":5130858953_7" function="internal">
        <lane id=":5130858953_7_0" index="0" allow="pedestrian delivery bicycle" speed="5.56" length="9.55" shape="161.28,348.72 170.83,349.08"/>
    </edge>
    <edge id=":5130858953_8" function="internal">
        <lane id=":5130858953_8_0" index="0" allow="pedestrian delivery bicycle" speed="3.65" length="4.67" shape="161.28,348.72 162.42,349.60 162.76,350.43 162.31,351.20 161.05,351.91"/>
    </edge>
    <edge id=":5130858954_0" function="internal">
        <lane id=":5130858954_0_0" index="0" allow="pedestrian delivery bicycle" speed="5.23" length="4.57" shape="128.44,350.75 127.38,350.96 126.54,351.53 125.92,352.46 125.52,353.76"/>
    </edge>
    <edge id=":5130858954_1" function="internal">
        <lane id=":5130858954_1_0" index="0" allow="pedestrian delivery bicycle" speed="5.56" length="9.61" shape="128.44,350.75 125.96,350.41 124.14,349.29 123.01,347.37 122.54,344.67"/>
    </edge>
    <edge id=":5130858954_2" function="internal">
        <lane id=":5130858954_2_0" index="0" allow="pedestrian delivery bicycle" speed="3.65" length="4.67" shape="128.44,350.75 127.23,349.98 126.81,349.18 127.20,348.38 128.38,347.55"/>
    </edge>
    <edge id=":5130858954_3" function="internal">
        <lane id=":5130858954_3_0" index="0" allow="pedestrian delivery bicycle" speed="4.88" length="4.54" shape="125.74,344.54 125.95,345.88 126.46,346.82 127.27,347.38 128.38,347.55"/>
    </edge>
    <edge id=":5130858954_4" function="internal">
        <lane id=":5130858954_4_0" index="0" allow="pedestrian delivery bicycle" speed="5.56" length="9.27" shape="125.74,344.54 125.91,347.29 126.03,349.18 125.96,351.06 125.52,353.76"/>
    </edge>
    <edge id=":5130858954_5" function="internal">
        <lane id=":5130858954_5_0" index="0" allow="pedestrian delivery bicycle" speed="3.65" length="4.67" shape="125.74,344.54 124.99,345.77 124.21,346.20 123.39,345.84 122.54,344.67"/>
    </edge>
    <edge id=":5130858954_6" function="internal">
        <lane id=":5130858954_6_0" index="0" allow="pedestrian delivery bicycle" speed="5.56" length="8.95" shape="122.30,353.58 122.72,350.97 122.81,349.16 122.70,347.33 122.54,344.67"/>
    </edge>
    <edge id=":5130858954_7" function="internal">
        <lane id=":5130858954_7_0" index="0" allow="pedestrian delivery bicycle" speed="5.56" length="9.36" shape="122.30,353.58 123.11,350.98 124.40,349.11 126.15,347.97 128.38,347.55"/>
    </edge>
    <edge id=":5130858954_8" function="internal">
        <lane id=":5130858954_8_0" index="0" allow="pedestrian delivery bicycle" speed="3.66" length="4.72" shape="122.30,353.58 123.17,352.42 124.00,352.06 124.79,352.51 125.52,353.76"/>
    </edge>
    <edge id=":5130858961_0" function="internal">
        <lane id=":5130858961_0_0" index="0" allow="pedestrian delivery bicycle" speed="5.09" length="4.94" shape="180.97,214.37 179.65,214.09 178.55,214.29 177.65,214.96 176.95,216.12"/>
    </edge>
    <edge id=":5130858961_1" function="internal">
        <lane id=":5130858961_1_0" index="0" allow="pedestrian delivery bicycle" speed="5.56" length="9.21" shape="180.97,214.37 178.41,213.42 176.67,212.72 174.98,211.92 172.54,210.68"/>
    </edge>
    <edge id=":5130858961_2" function="internal">
        <lane id=":5130858961_2_0" index="0" allow="pedestrian delivery bicycle" speed="3.65" length="4.67" shape="180.97,214.37 180.12,213.21 180.02,212.32 180.67,211.71 182.08,211.37"/>
    </edge>
    <edge id=":5130858961_3" function="internal">
        <lane id=":5130858961_3_0" index="0" allow="pedestrian delivery bicycle" speed="5.56" length="8.82" shape="174.01,207.84 176.34,209.02 177.96,209.79 179.62,210.46 182.08,211.37"/>
    </edge>
    <edge id=":5130858961_4" function="internal">
        <lane id=":5130858961_4_0" index="0" allow="pedestrian delivery bicycle" speed="5.56" length="9.87" shape="174.01,207.84 176.18,209.37 177.39,211.27 177.65,213.51 176.95,216.12"/>
    </edge>
    <edge id=":5130858961_5" function="internal">
        <lane id=":5130858961_5_0" index="0" allow="pedestrian delivery bicycle" speed="3.65" length="4.67" shape="174.01,207.84 174.71,209.09 174.70,209.99 173.98,210.52 172.54,210.68"/>
    </edge>
    <edge id=":5130858961_6" function="internal">
        <lane id=":5130858961_6_0" index="0" allow="pedestrian delivery bicycle" speed="5.16" length="4.98" shape="174.00,214.87 174.36,213.55 174.24,212.41 173.63,211.45 172.54,210.68"/>
    </edge>
    <edge id=":5130858961_7" function="internal">
        <lane id=":5130858961_7_0" index="0" allow="pedestrian delivery bicycle" speed="5.56" length="9.93" shape="174.00,214.87 175.40,212.55 177.21,211.20 179.43,210.80 182.08,211.37"/>
    </edge>
    <edge id=":5130858961_8" function="internal">
        <lane id=":5130858961_8_0" index="0" allow="pedestrian delivery bicycle" speed="3.65" length="4.67" shape="174.00,214.87 175.21,214.08 176.10,214.02 176.68,214.70 176.95,216.12"/>
    </edge>
    <edge id=":5130858964_0" function="internal">
        <lane id=":5130858964_0_0" index="0" allow="pedestrian delivery bicycle" speed="3.65" length="4.67" shape="21.66,156.33 20.47,155.51 20.08,154.71 20.49,153.91 21.70,153.13"/>
    </edge>
    <edge id=":5130858965_0" function="internal">
        <lane id=":5130858965_0_0" index="0" allow="pedestrian delivery bicycle" speed="5.56" length="7.95" shape="120.71,387.29 119.07,386.05 117.29,385.31 115.39,385.05 113.35,385.28"/>
    </edge>
    <edge id=":5130858965_1" function="internal">
        <lane id=":5130858965_1_0" index="0" allow="pedestrian delivery bicycle" speed="5.56" length="7.84" shape="120.71,387.29 118.84,385.34 117.58,383.60 116.95,382.07 116.93,380.74"/>
    </edge>
    <edge id=":5130858965_2" function="internal">
        <lane id=":5130858965_2_0" index="0" allow="pedestrian delivery bicycle" speed="3.71" length="4.90" shape="120.71,387.29 119.93,385.99 119.92,385.05 120.66,384.48 122.16,384.26"/>
    </edge>
    <edge id=":5130858965_3" function="internal">
        <lane id=":5130858965_3_0" index="0" allow="pedestrian delivery bicycle" speed="5.45" length="3.62" shape="120.05,381.47 120.18,382.22 120.74,382.97 121.49,383.67 122.16,384.26"/>
    </edge>
    <edge id=":5130858965_4" function="internal">
        <lane id=":5130858965_4_0" index="0" allow="pedestrian delivery bicycle" speed="5.56" length="8.01" shape="120.05,381.47 119.41,382.61 118.09,383.63 116.07,384.52 113.35,385.28"/>
    </edge>
    <edge id=":5130858965_5" function="internal">